sol/case2383wp.m
function mpc = case2383wp
%CASE2383WP

%% MATPOWER Case Format : Version 2
mpc.version = '2';

%%-----  Power Flow Data  -----%%
%% system MVA base
mpc.baseMVA = 100;

%% bus data
%	bus_i	type	Pd	Qd	Gs	Bs	area	Vm	Va	baseKV	zone	Vmax	Vmin	lam_P	lam_Q	mu_Vmax	mu_Vmin
mpc.bus = [
	1	1	0	0	0	0	1	1.07185017	0.200181574	220	1	1.11	0.95	135.4288	0.2843	0.0000	0.0000;
	2	1	0	0	0	0	1	1.07289946	0.627243723	220	1	1.11	0.95	135.4869	0.3778	0.0000	0.0000;
	3	1	0	0	0	0	1	1.06513467	-23.0889353	220	1	1.11	0.95	177.8859	1.2410	0.0000	0.0000;
	4	1	0	0	0	0	1	1.06470253	-5.79542445	220	1	1.11	0.95	148.5547	3.0884	0.0000	0.0000;
	5	1	0	0	0	0	1	1.05546636	-17.0175578	220	1	1.11	0.95	153.5935	0.7968	0.0000	0.0000;
	6	1	0	0	0	0	1	1.01201148	-11.8180527	400	1	1.05	0.95	79.1985	-34.6694	0.0000	0.0000;
	7	1	0	0	0	0	1	1.04837411	-18.6950523	220	1	1.11	0.95	208.0569	11.5757	0.0000	0.0000;
	8	1	0	0	0	0	1	1.01194115	-8.92470504	400	1	1.05	0.95	92.5118	-29.3461	0.0000	0.0000;
	9	1	0	0	0	0	1	1.02751701	-14.7447179	400	1	1.05	0.95	102.6459	-19.8263	0.0000	0.0000;
	10	2	12.23	9	0	0	1	1.09587815	-17.5019815	220	1	1.11	0.95	175.5520	0.0000	0.0000	0.0000;
	11	1	0	0	0	0	1	1.07056684	-4.39613334	220	1	1.11	0.95	144.5713	1.8904	0.0000	0.0000;
	12	1	0	0	0	0	1	1.05833618	-19.5285803	220	1	1.11	0.95	202.5697	10.7155	0.0000	0.0000;
	13	1	0	0	0	0	1	1.05338627	-18.830401	220	1	1.11	0.95	209.1083	11.7554	0.0000	0.0000;
	14	1	0	0	0	0	1	1.0564632	-3.00822875	220	1	1.11	0.95	141.5609	1.9402	0.0000	0.0000;
	15	1	0	0	0	0	1	1.00003495	-13.5653514	400	1	1.05	0.95	125.3071	-8.5910	0.0000	0.0000;
	16	2	54.88	100	0	0	1	1.07424627	0.710394529	220	1	1.11	0.95	134.9704	-0.0000	0.0000	0.0000;
	17	2	77	150	0	0	1	1.07853301	1.4857742	220	1	1.11	0.95	134.7616	0.0000	0.0000	0.0000;
	18	3	153	350	0	0	1	1.00030967	0	400	1	1.05	0.95	128.7300	-4.8788	0.0000	0.0000;
	19	1	0	0	0	0	1	1.05619189	-19.105734	220	1	1.11	0.95	202.7464	11.8720	0.0000	0.0000;
	20	1	0	0	0	0	1	1.00748225	-1.33197505	400	1	1.05	0.95	130.2951	-3.5225	0.0000	0.0000;
	21	1	0	0	0	0	1	1.04770534	-19.131229	220	1	1.11	0.95	215.1155	12.0939	0.0000	0.0000;
	22	1	0	0	0	0	1	1.08156797	-8.26346589	220	1	1.11	0.95	151.4125	1.1291	0.0000	0.0000;
	23	1	0	0	0	0	1	1.05612724	-14.8440104	220	2	1.11	0.95	152.3582	0.5530	0.0000	0.0000;
	24	1	0	0	0	0	1	1.05303261	-10.8085507	220	2	1.11	0.95	140.6226	-0.5385	0.0000	0.0000;
	25	1	0	0	0	0	1	1.05503949	-9.27315568	220	2	1.11	0.95	140.0237	-0.3589	0.0000	0.0000;
	26	1	0	0	0	0	1	1.04891237	-17.7255633	220	2	1.11	0.95	156.9367	1.2373	0.0000	0.0000;
	27	1	0	0	0	0	1	1.05066194	-8.51325727	220	2	1.11	0.95	143.7852	1.4010	0.0000	0.0000;
	28	1	0	0	0	0	1	1.05064782	-8.50897751	220	2	1.11	0.95	143.7755	1.3976	0.0000	0.0000;
	29	2	25.98	60	0	0	1	1.07948176	-13.0732342	220	2	1.11	0.95	158.1583	0.0014	0.0000	0.0000;
	30	2	25.98	60	0	0	1	1.0793913	-13.0744723	220	2	1.11	0.95	158.1521	-0.0000	0.0000	0.0000;
	31	2	20.98	50	0	0	1	1.00962773	-8.69479777	400	2	1.05	0.95	122.1687	-15.6761	0.0000	0.0000;
	32	1	0	0	0	0	1	1.0096126	-8.73311808	400	2	1.05	0.95	122.3684	-15.5472	0.0000	0.0000;
	33	1	0	0	0	0	1	1.04556593	-9.29105573	220	2	1.11	0.95	144.8366	1.6050	0.0000	0.0000;
	34	1	0	0	0	0	1	1.03341104	-9.17011098	400	2	1.05	0.95	135.8029	-3.5701	0.0000	0.0000;
	35	1	0	0	0	0	1	1.03344912	-9.1781881	400	2	1.05	0.95	135.8045	-3.5676	0.0000	0.0000;
	36	1	0	0	0	0	1	0.993366225	-12.0363791	400	2	1.05	0.95	131.8094	-9.2235	0.0000	0.0000;
	37	1	0	0	0	0	1	1.06030851	-15.8879845	220	2	1.11	0.95	154.2262	0.7427	0.0000	0.0000;
	38	1	0	0	0	0	1	1.06031571	-15.8869294	220	2	1.11	0.95	154.2284	0.7441	0.0000	0.0000;
	39	1	0	0	0	0	1	1.00528326	-7.84337637	400	2	1.05	0.95	131.2887	-7.6763	0.0000	0.0000;
	40	1	0	0	0	0	1	1.0052712	-7.83496769	400	2	1.05	0.95	131.3301	-7.6348	0.0000	0.0000;
	41	2	11.99	30	0	0	1	1.05694173	-7.16885288	220	2	1.11	0.95	137.6633	-0.7632	0.0000	0.0000;
	42	2	11.99	30	0	0	1	1.05694768	-7.18123457	220	2	1.11	0.95	137.6732	-0.7556	0.0000	0.0000;
	43	2	23.98	60	0	0	1	1.0121901	-5.567436	400	2	1.05	0.95	133.8450	-4.4164	0.0000	0.0000;
	44	2	23.98	60	0	0	1	1.01221049	-5.5793496	400	2	1.05	0.95	133.8283	-4.4344	0.0000	0.0000;
	45	2	159.84	75	0	0	1	1.06501647	-14.1670431	220	2	1.11	0.95	157.1985	0.3275	0.0000	0.0000;
	46	1	0	0	0	0	1	1.06503808	-14.1655987	220	2	1.11	0.95	157.1921	0.3261	0.0000	0.0000;
	47	1	0	0	0	0	1	1.04749496	-9.26313678	220	2	1.11	0.95	143.5589	1.1897	0.0000	0.0000;
	48	1	0	0	0	0	1	1.06362473	-13.1829396	220	2	1.11	0.95	157.4844	0.6509	0.0000	0.0000;
	49	1	0	0	0	0	1	1.06365198	-13.1871263	220	2	1.11	0.95	157.4903	0.6521	0.0000	0.0000;
	50	1	0	0	0	0	1	1.01898566	-7.3442594	400	2	1.05	0.95	134.9671	-3.5625	0.0000	0.0000;
	51	1	0	0	0	0	1	1.01909444	-7.36296413	400	2	1.05	0.95	134.9703	-3.5565	0.0000	0.0000;
	52	1	0	0	0	0	1	1.05469322	-11.6851461	220	2	1.11	0.95	143.7655	0.2540	0.0000	0.0000;
	53	1	0	0	0	0	1	1.05539586	-11.5403072	220	2	1.11	0.95	143.8008	0.2454	0.0000	0.0000;
	54	1	0	0	0	0	1	1.0551364	-9.20556005	220	2	1.11	0.95	139.9205	-0.3811	0.0000	0.0000;
	55	1	0	0	0	0	1	1.06636586	-14.9516425	220	2	1.11	0.95	153.4269	0.6933	0.0000	0.0000;
	56	1	0	0	0	0	1	1.05460783	-3.1620714	220	3	1.11	0.95	134.4927	-0.3924	0.0000	0.0000;
	57	1	22.98	10.96	0	0	1	1.07239232	-6.04554391	220	3	1.11	0.95	136.7432	-0.1160	0.0000	0.0000;
	58	1	21.98	5.79	0	0	1	1.07262624	-6.04545939	220	3	1.11	0.95	136.7416	-0.1272	0.0000	0.0000;
	59	1	0	0	0	0	1	1.08897688	1.74458365	220	3	1.11	0.95	126.3569	0.1790	0.0000	0.0000;
	60	1	0	0	0	0	1	1.07601162	-2.45404403	220	3	1.11	0.95	133.4140	-0.0702	0.0000	0.0000;
	61	1	0	0	0	0	1	1.09833245	3.34815407	220	3	1.11	0.95	127.1497	0.0436	0.0000	0.0000;
	62	1	0	0	0	0	1	1.09830436	3.34977783	220	3	1.11	0.95	127.1468	0.0423	0.0000	0.0000;
	63	2	37.37	52.69	0	0	1	1.09439363	2.12704316	220	3	1.11	0.95	127.8027	-0.0000	0.0000	0.0000;
	64	2	35.37	55.32	0	0	1	1.09524784	1.97478266	220	3	1.11	0.95	128.8481	-0.0000	0.0000	0.0000;
	65	1	13.39	2.02	0	0	1	1.08063632	0.220883477	220	3	1.11	0.95	129.6866	0.0276	0.0000	0.0000;
	66	1	0	0	0	0	1	1.08495179	-5.50511731	220	3	1.11	0.95	136.0446	0.2676	0.0000	0.0000;
	67	2	60.4	92.1	0	0	1	1.03105371	-3.64420025	400	3	1.05	0.95	135.4718	0.0000	0.0000	0.0000;
	68	1	0	0	0	0	1	1.08256505	-4.35635745	220	3	1.11	0.95	134.9931	0.2102	0.0000	0.0000;
	69	1	0	0	0	0	1	1.08390831	0.293213466	220	3	1.11	0.95	130.5802	0.0635	0.0000	0.0000;
	70	1	0	0	0	0	1	1.05904325	-2.34375851	220	3	1.11	0.95	133.5958	-0.5069	0.0000	0.0000;
	71	1	0	0	0	0	1	1.0730347	-0.589917033	220	3	1.11	0.95	131.2335	0.1855	0.0000	0.0000;
	72	1	0	0	0	0	1	1.0730347	-0.589917033	220	3	1.11	0.95	131.2335	0.1855	0.0000	0.0000;
	73	1	0	0	0	0	1	1.06214015	-1.56037762	220	3	1.11	0.95	132.9081	-0.6722	0.0000	0.0000;
	74	1	0	0	0	0	1	1.05945483	-2.48360657	220	3	1.11	0.95	133.9412	-0.5090	0.0000	0.0000;
	75	1	0	0	0	0	1	0.999503728	-2.10614078	400	3	1.05	0.95	131.1858	-2.7154	0.0000	0.0000;
	76	1	0	0	0	0	1	0.999454302	-2.110264	400	3	1.05	0.95	131.1859	-2.7148	0.0000	0.0000;
	77	1	0	0	0	0	1	1.07122407	-1.16656926	220	3	1.11	0.95	132.1583	0.1597	0.0000	0.0000;
	78	1	0	0	0	0	1	1.07039831	-3.27308842	220	3	1.11	0.95	133.4909	0.2162	0.0000	0.0000;
	79	1	0	0	0	0	1	1.08219395	0.191408006	220	3	1.11	0.95	130.8338	0.1874	0.0000	0.0000;
	80	1	0	0	0	0	1	1.07304519	-5.99340839	220	3	1.11	0.95	136.6985	-0.1378	0.0000	0.0000;
	81	1	0	0	0	0	1	1.07305824	-5.99314921	220	3	1.11	0.95	136.6981	-0.1367	0.0000	0.0000;
	82	1	0	0	0	0	1	1.08960903	2.27070144	220	3	1.11	0.95	127.5576	0.1308	0.0000	0.0000;
	83	2	15.99	22.97	0	0	1	1.08410123	0.320939523	220	3	1.11	0.95	130.6322	-0.0002	0.0000	0.0000;
	84	2	15.79	22.27	0	0	1	1.08422141	0.319846731	220	3	1.11	0.95	130.6313	0.0000	0.0000	0.0000;
	85	2	9.99	17.01	0	0	1	1.07391156	-1.05346222	220	3	1.11	0.95	132.0457	0.0011	0.0000	0.0000;
	86	2	9.99	16.66	0	0	1	1.07381696	-1.05120516	220	3	1.11	0.95	132.0451	-0.0000	0.0000	0.0000;
	87	1	11.09	16.22	0	0	1	1.0700775	-1.55356057	220	3	1.11	0.95	132.6945	0.2698	0.0000	0.0000;
	88	1	0	0	0	0	1	1.07011116	-1.55417884	220	3	1.11	0.95	132.6964	0.2739	0.0000	0.0000;
	89	1	0	0	0	0	1	1.0916084	0.0121873762	220	3	1.11	0.95	129.7080	0.0816	0.0000	0.0000;
	90	1	0	0	0	0	1	1.07591126	-0.546429077	220	3	1.11	0.95	131.0955	0.0348	0.0000	0.0000;
	91	1	0	0	0	0	1	1.08202543	0.587569966	220	3	1.11	0.95	129.1706	0.0287	0.0000	0.0000;
	92	1	0	0	0	0	1	0.987505357	-4.9462965	400	3	1.05	0.95	132.9869	-1.3815	0.0000	0.0000;
	93	2	9.99	16.39	0	0	1	1.09154512	1.03614997	220	3	1.11	0.95	129.3780	0.0217	0.0000	0.0000;
	94	1	0	0	0	0	1	1.09151699	1.0348259	220	3	1.11	0.95	129.3740	0.0210	0.0000	0.0000;
	95	2	6.89	8.15	0	0	1	1.09792303	0.803431279	220	3	1.11	0.95	128.9426	-0.0399	0.0000	0.0000;
	96	1	0	0	0	0	1	1.09792266	0.798878531	220	3	1.11	0.95	128.9405	-0.0397	0.0000	0.0000;
	97	2	8.69	5.26	0	0	1	1.07147588	-3.70965089	220	3	1.11	0.95	118.3356	-0.6730	0.0000	0.0000;
	98	1	0	0	0	0	1	1.00913805	-6.4356987	400	3	1.05	0.95	134.6995	-3.3385	0.0000	0.0000;
	99	1	0	0	0	0	1	1.00919297	-6.42616122	400	3	1.05	0.95	134.6936	-3.3424	0.0000	0.0000;
	100	1	0	0	0	0	1	1.00236717	-4.52621629	400	3	1.05	0.95	132.5963	-2.4582	0.0000	0.0000;
	101	1	0	0	0	0	1	1.00242424	-4.51727761	400	3	1.05	0.95	132.5926	-2.4664	0.0000	0.0000;
	102	1	0	0	0	0	1	1.09406692	0.0917100195	220	3	1.11	0.95	129.5530	0.0239	0.0000	0.0000;
	103	2	18.09	23.76	0	0	1	1.07570086	-0.646587941	220	3	1.11	0.95	131.4080	-0.0006	0.0000	0.0000;
	104	2	33.68	46.11	0	0	1	1.07590446	-0.639788564	220	3	1.11	0.95	131.4069	0.0000	0.0000	0.0000;
	105	2	33.78	62.95	0	0	1	0.971845712	-4.43052677	400	3	1.05	0.95	132.4453	-0.7487	0.0000	0.0000;
	106	1	0	0	0	0	1	0.9720324	-4.44149554	400	3	1.05	0.95	132.4461	-0.7452	0.0000	0.0000;
	107	1	0	0	0	0	1	1.05773052	-2.67791027	220	3	1.11	0.95	133.8921	-0.4400	0.0000	0.0000;
	108	1	0	0	0	0	1	1.05953017	-2.4918804	220	3	1.11	0.95	133.8095	-0.4432	0.0000	0.0000;
	109	2	1	22.36	0	0	1	1.10170769	4.06809029	220	3	1.11	0.95	126.7163	0.0000	0.0000	0.0000;
	110	2	1	22.18	0	0	1	1.10163816	4.07006827	220	3	1.11	0.95	126.7134	0.0000	0.0000	0.0000;
	111	2	26.49	18	0	0	1	1.11	-8.96948768	220	4	1.11	0.95	152.8009	0.0000	4592.3722	0.0000;
	112	1	0	0	0	0	1	1.10988773	-8.96791027	220	4	1.11	0.95	152.7976	-0.0019	0.0000	0.0000;
	113	1	0	0	0	0	1	1.06069595	-19.1923484	220	4	1.11	0.95	149.0922	-1.8003	0.0000	0.0000;
	114	1	0	0	0	0	1	1.07398295	-18.0205413	220	4	1.11	0.95	148.3309	-2.9418	0.0000	0.0000;
	115	1	0	0	0	0	1	0.985871604	-15.5191564	400	4	1.05	0.95	146.7967	1.0533	0.0000	0.0000;
	116	1	0	0	0	0	1	0.98584155	-15.5107714	400	4	1.05	0.95	146.7913	1.0589	0.0000	0.0000;
	117	1	0	0	0	0	1	1.07338525	-22.7510842	220	4	1.11	0.95	164.6986	1.8356	0.0000	0.0000;
	118	1	0	0	0	0	1	1.05167474	-30.0072923	220	4	1.11	0.95	174.6117	1.7101	0.0000	0.0000;
	119	1	0	0	0	0	1	1.05167474	-30.0072923	220	4	1.11	0.95	174.6117	1.7101	0.0000	0.0000;
	120	1	0	0	0	0	1	1.04220104	-28.7238742	220	4	1.11	0.95	169.9182	2.6223	0.0000	0.0000;
	121	1	0	0	0	0	1	1.06877739	-20.3359422	220	4	1.11	0.95	149.0303	-0.0532	0.0000	0.0000;
	122	1	0	0	0	0	1	1.06877739	-20.3359422	220	4	1.11	0.95	149.0303	-0.0532	0.0000	0.0000;
	123	2	5.5	7	0	0	1	1.10990799	-12.5442641	220	4	1.11	0.95	157.8409	0.1961	0.1095	0.0000;
	124	2	8.79	17	0	0	1	1.1099292	-12.5422054	220	4	1.11	0.95	157.8569	0.2023	0.1743	0.0000;
	125	2	35.7	18.3	0	0	1	1.08888557	-26.7481539	220	4	1.11	0.95	170.7400	0.0000	0.0000	0.0000;
	126	1	25.28	15.9	0	0	1	1.08877946	-26.7391461	220	4	1.11	0.95	170.7454	-0.0019	0.0000	0.0000;
	127	2	25.71	15.3	0	0	1	1.03811922	-20.2480826	400	4	1.05	0.95	157.7946	-0.0000	0.0000	0.0000;
	128	1	0	0	0	0	1	1.03805127	-20.2563578	400	4	1.05	0.95	157.8035	0.0023	0.0000	0.0000;
	129	1	0	0	0	0	1	1.04447837	-25.0064314	220	4	1.11	0.95	166.1985	3.2266	0.0000	0.0000;
	130	1	0	0	0	0	1	1.03022275	-25.6030686	220	4	1.11	0.95	163.0744	3.6140	0.0000	0.0000;
	131	2	68.67	70	0	0	1	1.09854898	-14.840386	220	4	1.11	0.95	147.6000	-0.0066	0.0000	0.0000;
	132	2	33	45	0	0	1	1.09867542	-14.8601588	220	4	1.11	0.95	147.6038	0.0000	0.0000	0.0000;
	133	1	0	0	0	0	1	1.00430169	-15.0985609	400	4	1.05	0.95	146.9965	0.0694	0.0000	0.0000;
	134	1	0	0	0	0	1	1.00431648	-15.0976579	400	4	1.05	0.95	146.9974	0.0687	0.0000	0.0000;
	135	1	0	0	0	0	1	1.05221195	-29.9429432	220	4	1.11	0.95	174.3179	1.5348	0.0000	0.0000;
	136	1	0	0	0	0	1	1.05221195	-29.9429432	220	4	1.11	0.95	174.3179	1.5348	0.0000	0.0000;
	137	1	0	0	0	0	1	0.996681047	-12.4820416	400	4	1.05	0.95	143.3346	1.6712	0.0000	0.0000;
	138	1	0	0	0	0	1	0.996681047	-12.4820416	400	4	1.05	0.95	143.3346	1.6712	0.0000	0.0000;
	139	2	33.2	22.6	0	0	1	1.11	-12.7319158	220	4	1.11	0.95	157.9654	-0.0000	27767.4842	0.0000;
	140	2	29.23	19.6	0	0	1	1.10998511	-12.7442642	220	4	1.11	0.95	157.9791	0.0218	0.4828	0.0000;
	141	1	0	0	0	0	1	1.04810166	-28.4161795	220	4	1.11	0.95	168.2751	2.3953	0.0000	0.0000;
	142	1	0	0	0	0	1	1.04877133	-30.2189498	220	4	1.11	0.95	174.8135	1.8038	0.0000	0.0000;
	143	1	0	0	0	0	1	1.07193598	-24.1728777	220	4	1.11	0.95	165.4257	1.8912	0.0000	0.0000;
	144	1	0	0	0	0	1	1.07184806	-24.172334	220	4	1.11	0.95	165.4270	1.8903	0.0000	0.0000;
	145	1	0	0	0	0	1	0.978295098	-23.7758338	400	4	1.05	0.95	163.8699	1.9094	0.0000	0.0000;
	146	1	0	0	0	0	1	0.978295098	-23.7758338	400	4	1.05	0.95	163.8699	1.9094	0.0000	0.0000;
	147	1	0	0	0	0	1	1.04208018	-22.6754679	220	4	1.11	0.95	159.8723	3.1779	0.0000	0.0000;
	148	1	0	0	0	0	1	1.04212734	-22.6699717	220	4	1.11	0.95	159.8717	3.1796	0.0000	0.0000;
	149	1	0	0	0	0	1	1.06862589	-24.8801521	220	4	1.11	0.95	166.5892	1.9503	0.0000	0.0000;
	150	1	0	0	0	0	1	1.06350529	-18.590039	220	4	1.11	0.95	148.8038	-0.8005	0.0000	0.0000;
	151	1	0	0	0	0	1	1.06353368	-18.5964938	220	4	1.11	0.95	148.8035	-0.8022	0.0000	0.0000;
	152	1	0	0	0	0	1	1.05730778	-16.2509484	220	4	1.11	0.95	146.1357	0.2474	0.0000	0.0000;
	153	1	0	0	0	0	1	1.05730778	-16.2509484	220	4	1.11	0.95	146.1357	0.2474	0.0000	0.0000;
	154	1	0	0	0	0	1	1.02589548	-24.5044816	220	4	1.11	0.95	161.7162	3.6090	0.0000	0.0000;
	155	1	0	0	0	0	1	1.05293194	-20.9872825	220	5	1.11	0.95	158.5391	1.6338	0.0000	0.0000;
	156	1	0	0	0	0	1	1.11	-24.0966329	220	5	1.11	0.95	158.0157	-4.2702	15203.9832	0.0000;
	157	1	0	0	0	0	1	1.02591964	-22.2312634	400	5	1.05	0.95	157.1774	-1.3573	0.0000	0.0000;
	158	1	0	0	0	0	1	1.02588717	-22.228228	400	5	1.05	0.95	157.1710	-1.3630	0.0000	0.0000;
	159	1	0	0	0	0	1	1.02516607	-20.8518588	400	5	1.05	0.95	153.1098	0.2942	0.0000	0.0000;
	160	1	0	0	0	0	1	1.02522426	-20.8566048	400	5	1.05	0.95	153.1321	0.3017	0.0000	0.0000;
	161	1	0	0	0	0	1	1.05167105	-25.4284707	220	5	1.11	0.95	160.0666	1.5185	0.0000	0.0000;
	162	1	0	0	0	0	1	1.05168272	-25.4294676	220	5	1.11	0.95	160.0657	1.5174	0.0000	0.0000;
	163	1	0	0	0	0	1	1.0843655	-20.879912	220	5	1.11	0.95	153.1256	1.4018	0.0000	0.0000;
	164	1	0	0	0	0	1	1.08435247	-20.8839575	220	5	1.11	0.95	153.1369	1.4039	0.0000	0.0000;
	165	1	0	0	0	0	1	0.996603104	-19.9998605	400	5	1.05	0.95	144.7433	-0.9657	0.0000	0.0000;
	166	1	0	0	0	0	1	1.06512845	-20.1869639	220	5	1.11	0.95	158.2703	1.5352	0.0000	0.0000;
	167	1	0	0	0	0	1	1.06516441	-20.1837867	220	5	1.11	0.95	158.2677	1.5360	0.0000	0.0000;
	168	1	0	0	0	0	1	1.02660786	-22.6055066	400	5	1.05	0.95	157.8596	1.0940	0.0000	0.0000;
	169	1	0	0	0	0	1	1.02659221	-22.6124766	400	5	1.05	0.95	157.8752	1.0984	0.0000	0.0000;
	170	1	0	0	0	0	1	1.04968553	-23.638741	220	5	1.11	0.95	170.2480	1.7525	0.0000	0.0000;
	171	1	0	0	0	0	1	1.0497155	-23.6366276	220	5	1.11	0.95	170.2549	1.7530	0.0000	0.0000;
	172	1	0	0	0	0	1	1.05926537	-22.1263588	220	5	1.11	0.95	157.9513	1.9755	0.0000	0.0000;
	173	1	0	0	0	0	1	1.05923159	-22.1258245	220	5	1.11	0.95	157.9591	1.9753	0.0000	0.0000;
	174	1	0	0	0	0	1	1.0570456	-20.3791003	220	5	1.11	0.95	160.6159	1.5520	0.0000	0.0000;
	175	1	0	0	0	0	1	1.05703154	-20.3856115	220	5	1.11	0.95	160.6069	1.5511	0.0000	0.0000;
	176	2	0	40	0	0	1	1.02859323	-19.2308809	400	5	1.05	0.95	152.8787	-0.0015	0.0000	0.0000;
	177	2	0	40	0	0	1	1.02875176	-19.2304248	400	5	1.05	0.95	152.8754	0.0000	0.0000	0.0000;
	178	1	0	0	0	0	1	1.07728077	-26.1332212	220	5	1.11	0.95	160.8587	-1.0144	0.0000	0.0000;
	179	1	0	0	0	0	1	1.07731573	-26.1290915	220	5	1.11	0.95	160.8551	-1.0184	0.0000	0.0000;
	180	2	339.85	49.6	0	0	2	0.950000004	-7.44823199	400	6	1.05	0.95	133.9116	-0.0000	0.0000	1561.7845;
	181	2	0	0	0	0	3	1.10999995	-8.12342954	220	6	1.11	0.95	147.0480	0.0000	118.9664	0.0000;
	182	2	0	0	0	0	5	1.007371	-14.817325	400	6	1.05	0.95	146.8582	0.0000	0.0000	0.0000;
	183	1	150	0	0	0	3	1.03957789	-10.1238107	400	6	1.05	0.95	136.0398	-3.7304	0.0000	0.0000;
	184	2	317.34	50.3	0	0	2	1.07983812	-3.72906461	220	6	1.11	0.95	133.2280	0.0000	0.0000	0.0000;
	185	2	362.43	36.7	0	0	2	0.950000005	-8.32084116	400	6	1.05	0.95	134.3986	-0.0000	0.0000	1369.9498;
	186	2	33.33	1	0	0	5	1.08855386	-26.8716932	220	6	1.11	0.95	170.8219	-0.0000	0.0000	0.0000;
	187	1	7.12	1.5	0	0	1	1.06144248	-23.2702118	110	1	1.12	0.95	233.0054	-3.2916	0.0000	0.0000;
	188	1	7.63	1	0	0	1	1.03267418	-29.1478928	110	1	1.12	0.95	187.4628	3.1487	0.0000	0.0000;
	189	1	9.77	8.7	0	0	1	0.979028301	-27.1546532	110	1	1.12	0.95	572.8859	-21.4871	0.0000	0.0000;
	190	1	6.12	1.5	0	0	1	1.08618245	-3.91777675	110	1	1.12	0.95	138.7729	1.5449	0.0000	0.0000;
	191	1	6.12	1.6	0	0	1	1.07212439	-5.25327364	110	1	1.12	0.95	138.3581	2.0928	0.0000	0.0000;
	192	2	30.56	12	0	0	1	1.11999999	-19.683232	110	1	1.12	0.95	146.3366	0.0000	1140.7433	0.0000;
	193	1	15.28	3	0	0	1	1.11785807	-19.5662814	110	1	1.12	0.95	143.9522	0.0276	0.0000	0.0000;
	194	1	0	0	0	0	1	1.11796086	-19.8281873	110	1	1.12	0.95	147.0029	0.1745	0.0000	0.0000;
	195	1	8.14	2	0	0	1	1.07071383	-24.0976915	110	1	1.12	0.95	265.3145	7.2895	0.0000	0.0000;
	196	2	6.92	1.5	0	0	1	1.01602226	-27.9206384	110	1	1.12	0.95	160.9091	7.4628	0.0000	0.0000;
	197	1	6.92	1.5	0	0	1	1.06428964	-12.6948339	110	1	1.12	0.95	152.8427	1.5549	0.0000	0.0000;
	198	2	12.32	1.7	0	0	1	1.06478222	-23.98303	110	1	1.12	0.95	237.7462	16.8356	0.0000	0.0000;
	199	1	1.43	0.5	0	0	1	1.09502787	-6.4428155	110	1	1.12	0.95	143.4601	1.2248	0.0000	0.0000;
	200	1	1.08	0.5	0	0	1	1.097547	-23.0772065	110	1	1.12	0.95	167.3919	8.2037	0.0000	0.0000;
...
];

%% generator data
%	bus	Pg	Qg	Qmax	Qmin	Vg	mBase	status	Pmax	Pmin	Pc1	Pc2	Qc1min	Qc1max	Qc2min	Qc2max	ramp_agc	ramp_10	ramp_30	ramp_q	apf	mu_Pmax	mu_Pmin	mu_Qmax	mu_Qmin
mpc.gen = [
	10	400	75.7041491	120	0	1.09587815	168	1	400	70	0	0	0	0	0	0	0	0	0	0	0	57.6020	0.0000	0.0000	0.0000;
	16	720	140.602079	440	-40	1.07424627	823	1	720	120	0	0	0	0	0	0	0	0	0	0	0	86.0804	0.0000	0.0000	0.0000;
	17	1080	301.559171	660	-60	1.07853301	1234	1	1080	120	0	0	0	0	0	0	0	0	0	0	0	36.2916	0.0000	0.0000	0.0000;
	18	1907.7313	-139.999999	1540	-140	1.00030967	2879	1	2520	120	0	0	0	0	0	0	0	0	0	0	0	0.0000	0.0000	0.0000	4.8788;
	29	70.0000983	239.995022	240	0	1.07948176	511	1	400	70	0	0	0	0	0	0	0	0	0	0	0	0.0000	0.0717	0.0014	0.0000;
	30	70.0000009	21.2983186	240	0	1.0793913	511	1	800	70	0	0	0	0	0	0	0	0	0	0	0	0.0000	7.4679	0.0000	0.0000;
	31	1000	4.36858093e-07	350	0	1.00962773	420	1	1000	150	0	0	0	0	0	0	0	0	0	0	0	50.9487	0.0000	0.0000	15.6761;
	41	200	9.0002205e-06	120	0	1.05694173	241	1	200	70	0	0	0	0	0	0	0	0	0	0	0	35.4133	0.0000	0.0000	0.7632;
	42	70.0000007	9.09140895e-06	120	0	1.05694768	241	1	410	70	0	0	0	0	0	0	0	0	0	0	0	0.0000	10.1568	0.0000	0.7556;
	43	410	1.55153027e-06	240	0	1.0121901	482	1	410	70	0	0	0	0	0	0	0	0	0	0	0	58.4750	0.0000	0.0000	4.4164;
	44	410	1.54520739e-06	240	0	1.01221049	482	1	410	70	0	0	0	0	0	0	0	0	0	0	0	47.8183	0.0000	0.0000	4.4344;
	45	42.2	20.9999795	21	0	1.06501647	49	1	42.2	39.14	0	0	0	0	0	0	0	0	0	0	0	157.1986	0.0000	0.3275	0.0000;
	63	650	135.412716	302	0	1.09439363	473	1	650	145	0	0	0	0	0	0	0	0	0	0	0	59.0627	0.0000	0.0000	0.0000;
	64	450	100.939472	311	2	1.09524784	475	1	450	145	0	0	0	0	0	0	0	0	0	0	0	46.9381	0.0000	0.0000	0.0000;
	67	750	286.870299	449	0	1.03105371	864	1	750	220	0	0	0	0	0	0	0	0	0	0	0	53.5918	0.0000	0.0000	0.0000;
	83	225	-88.9869545	190	-89	1.08410123	239	1	225	140	0	0	0	0	0	0	0	0	0	0	0	71.8522	0.0000	0.0000	0.0000;
	84	225	179.672771	190	-89	1.08422141	251	1	225	140	0	0	0	0	0	0	0	0	0	0	0	45.0613	0.0000	0.0000	0.0000;
	85	120	124.993044	125	-50	1.07391156	133	1	120	40	0	0	0	0	0	0	0	0	0	0	0	30.6657	0.0000	0.0011	0.0000;
	86	119.999999	-47.2019875	125	-50	1.07381696	133	1	120	40	0	0	0	0	0	0	0	0	0	0	0	9.6151	0.0000	0.0000	0.0000;
	93	120	89.9996899	90	5	1.09154512	123	1	120	80	0	0	0	0	0	0	0	0	0	0	0	32.7580	0.0000	0.0217	0.0000;
	95	110	27.0001784	68	27	1.09792303	105	1	110	50	0	0	0	0	0	0	0	0	0	0	0	22.2126	0.0000	0.0000	0.0399;
	97	87.5999999	27.0000101	68	27	1.07147588	105	1	87.6	83.26	0	0	0	0	0	0	0	0	0	0	0	118.3356	0.0000	0.0000	0.6730;
	103	160	-81.9884121	177	-82	1.07570086	239	1	400	160	0	0	0	0	0	0	0	0	0	0	0	0.0000	20.5320	0.0000	0.0000;
	104	225	250.304698	379	-177	1.07590446	490	1	225	140	0	0	0	0	0	0	0	0	0	0	0	23.8969	0.0000	0.0000	0.0000;
	105	430	-164.999991	353	-165	0.971845712	502	1	430	160	0	0	0	0	0	0	0	0	0	0	0	28.9153	0.0000	0.0000	0.7487;
	109	250	49.9616732	65	0	1.10170769	277	1	250	80	0	0	0	0	0	0	0	0	0	0	0	126.7163	0.0000	0.0000	0.0000;
	110	250	49.048539	65	0	1.10163816	280	1	250	80	0	0	0	0	0	0	0	0	0	0	0	126.7134	0.0000	0.0000	0.0000;
	111	360	158.414855	270	0	1.11	401	1	360	40	0	0	0	0	0	0	0	0	0	0	0	16.3209	0.0000	0.0000	0.0000;
	123	109.999982	39.9999656	40	0	1.10990799	98	1	110	20	0	0	0	0	0	0	0	0	0	0	0	0.3809	0.0000	0.1961	0.0000;
	124	125	89.9999666	90	0	1.1099292	132	1	125	45	0	0	0	0	0	0	0	0	0	0	0	73.8869	0.0000	0.2023	0.0000;
	125	164.992713	252.76432	360	0	1.08888557	654	1	860	70	0	0	0	0	0	0	0	0	0	0	0	0.0000	0.0000	0.0000	0.0000;
	127	690	79.6197108	360	0	1.03811922	540	1	690	70	0	0	0	0	0	0	0	0	0	0	0	76.8846	0.0000	0.0000	0.0000;
	131	871.759966	0.00103293155	360	0	1.09854898	696	1	1060	70	0	0	0	0	0	0	0	0	0	0	0	0.0000	0.0000	0.0000	0.0066;
	132	70.0000006	260.328591	480	0	1.09867542	732	1	600	70	0	0	0	0	0	0	0	0	0	0	0	0.0000	11.1462	0.0000	0.0000;
	139	599.999999	144.013127	360	0	1.11	714	1	600	70	0	0	0	0	0	0	0	0	0	0	0	11.0254	0.0000	0.0000	0.0000;
	140	200	119.99969	120	0	1.10998511	240	1	200	70	0	0	0	0	0	0	0	0	0	0	0	61.6591	0.0000	0.0218	0.0000;
	176	600	-119.995319	220	-120	1.02859323	430	1	600	70	0	0	0	0	0	0	0	0	0	0	0	152.8787	0.0000	0.0000	0.0015;
	177	200	190.560904	220	-120	1.02875176	430	1	200	70	0	0	0	0	0	0	0	0	0	0	0	152.8754	0.0000	0.0000	0.0000;
	180	0	-67.7506305	99999	-99999	0.950000004	7485	1	0	0	0	0	0	0	0	0	0	0	0	0	0	133.9116	0.0000	0.0000	0.0000;
	181	175	30.2276312	99999	-99999	1.10999995	210	1	175	174	0	0	0	0	0	0	0	0	0	0	0	147.0480	0.0000	0.0000	0.0000;
	182	307.59	144.955145	99999	-99999	1.007371	13465	1	307.59	306	0	0	0	0	0	0	0	0	0	0	0	146.8582	0.0000	0.0000	0.0000;
	184	0	72.640535	99999	-99999	1.07983812	8353	1	0	0	0	0	0	0	0	0	0	0	0	0	0	133.2280	0.0000	0.0000	0.0000;
	185	0	-52.3113516	99999	-99999	0.950000005	14254	1	0	0	0	0	0	0	0	0	0	0	0	0	0	134.3986	0.0000	0.0000	0.0000;
	186	0	-4.88262536	99999	-99999	1.08855386	7401	1	0	0	0	0	0	0	0	0	0	0	0	0	0	170.8219	0.0000	0.0000	0.0000;
	192	95	42.5926477	50	0	1.11999999	114	1	95	90.25	0	0	0	0	0	0	0	0	0	0	0	146.3366	0.0000	0.0000	0.0000;
	196	0.899999957	0.999999081	1	0	1.01602226	1	1	0.9	0.86	0	0	0	0	0	0	0	0	0	0	0	160.9093	0.0000	7.4628	0.0000;
	198	0.799999971	0.999999592	1	0	1.06478222	1	1	0.8	0.76	0	0	0	0	0	0	0	0	0	0	0	237.7464	0.0000	16.8356	0.0000;
	205	15	3.43995664	10	0	1.11999999	18	1	15	14.25	0	0	0	0	0	0	0	0	0	0	0	150.2934	0.0000	0.0000	0.0000;
	213	11	8.35011081e-07	8	0	1.05533342	13	1	11	10.45	0	0	0	0	0	0	0	0	0	0	0	323.3603	0.0000	0.0000	8.1922;
	264	2.49999997	1.99999951	2	0	1.06652469	3	1	2.5	2.38	0	0	0	0	0	0	0	0	0	0	0	218.5742	0.0000	14.0100	0.0000;
	269	5.99999996	4.99999515	5	0	1.10336796	7	1	6	5.7	0	0	0	0	0	0	0	0	0	0	0	156.0204	0.0000	1.4133	0.0000;
	277	70	41.9999906	42	0	1.11831928	84	1	70	66.5	0	0	0	0	0	0	0	0	0	0	0	150.0437	0.0000	0.7247	0.0000;
	278	60	20.3386086	40	0	1.12	72	1	60	57	0	0	0	0	0	0	0	0	0	0	0	151.2133	0.0000	0.0000	0.0000;
	279	60	18.2385105	40	0	1.11999999	72	1	60	57	0	0	0	0	0	0	0	0	0	0	0	149.5012	0.0000	0.0000	0.0000;
	281	120	45.559915	90	0	1.12	144	1	120	114	0	0	0	0	0	0	0	0	0	0	0	149.7974	0.0000	0.0000	0.0000;
	282	40	37.0450907	40	0	1.12	48	1	40	38	0	0	0	0	0	0	0	0	0	0	0	147.1673	0.0000	0.0000	0.0000;
	289	2.49999995	2.99997454	3	0	1.11651266	3	1	2.5	2.38	0	0	0	0	0	0	0	0	0	0	0	150.3974	0.0000	0.2695	0.0000;
	294	1.99999996	0.999994062	1	0	1.10003722	2	1	2	1.9	0	0	0	0	0	0	0	0	0	0	0	180.8484	0.0000	1.1578	0.0000;
	314	1.49999997	2.52490261e-06	1	0	1.08102671	2	1	1.5	1.43	0	0	0	0	0	0	0	0	0	0	0	244.7118	0.0000	0.0000	2.7130;
	328	44	20.9999994	21	0	1.10555672	53	1	44	41.8	0	0	0	0	0	0	0	0	0	0	0	173.3604	0.0000	11.0926	0.0000;
	329	44	20.9999994	21	0	1.08975121	53	1	44	41.8	0	0	0	0	0	0	0	0	0	0	0	206.6224	0.0000	12.2569	0.0000;
	330	44	20.9999992	21	0	1.11934406	53	1	44	41.8	0	0	0	0	0	0	0	0	0	0	0	159.1779	0.0000	8.4614	0.0000;
	331	43	20.9999995	21	0	1.10942032	52	1	43	40.85	0	0	0	0	0	0	0	0	0	0	0	220.8021	0.0000	13.4549	0.0000;
	334	1.49999997	0.999999041	1	0	1.08038811	2	1	1.5	1.43	0	0	0	0	0	0	0	0	0	0	0	214.5281	0.0000	7.2105	0.0000;
	346	200	54.2654067	120	0	1.12	180	1	200	70	0	0	0	0	0	0	0	0	0	0	0	52.6019	0.0000	0.0000	0.0000;
	347	10	14.9999966	15	0	1.11337155	12	1	10	10	0	0	0	0	0	0	0	0	0	0	0	185.3235	0.0000	2.0326	0.0000;
	359	1.49999997	0.999999433	1	0	1.09238057	2	1	1.5	1.43	0	0	0	0	0	0	0	0	0	0	0	205.9189	0.0000	12.0953	0.0000;
	365	5.09999997	2.99999955	3	0	1.08861888	6	1	5.1	4.85	0	0	0	0	0	0	0	0	0	0	0	216.0255	0.0000	15.1434	0.0000;
	382	7.99999998	4.99999937	5	0	1.04582993	10	1	8	7.6	0	0	0	0	0	0	0	0	0	0	0	334.9937	0.0000	10.8994	0.0000;
	383	7.99999998	4.99999965	5	0	1.04558203	10	1	8	7.6	0	0	0	0	0	0	0	0	0	0	0	286.8926	0.0000	19.6448	0.0000;
	385	5.99999997	3.99999963	4	0	1.05136969	7	1	6	5.7	0	0	0	0	0	0	0	0	0	0	0	261.4254	0.0000	18.5580	0.0000;
	390	4.49999995	2.9999968	3	0	1.06696125	5	1	4.5	4.28	0	0	0	0	0	0	0	0	0	0	0	139.6652	0.0000	2.1384	0.0000;
	395	9.99999996	7.9999992	8	0	1.09855104	12	1	10	9.5	0	0	0	0	0	0	0	0	0	0	0	189.1007	0.0000	8.6519	0.0000;
	404	2.99999995	2.99999722	3	0	1.05853107	4	1	3	2.85	0	0	0	0	0	0	0	0	0	0	0	141.1380	0.0000	2.4626	0.0000;
	426	3.19999998	6.53110568e-07	2	0	1.05331464	4	1	3.2	3.04	0	0	0	0	0	0	0	0	0	0	0	288.1746	0.0000	0.0000	10.4886;
	444	0.999999953	0.999995036	1	0	1.08900793	1	1	1	0.95	0	0	0	0	0	0	0	0	0	0	0	144.6354	0.0000	1.3821	0.0000;
	451	4.49999997	2.99999959	3	0	1.0813677	5	1	4.5	4.28	0	0	0	0	0	0	0	0	0	0	0	230.4601	0.0000	16.6159	0.0000;
	482	0.999999949	1.04056815e-05	1	0	1.07013087	1	1	1	0.95	0	0	0	0	0	0	0	0	0	0	0	134.5769	0.0000	0.0000	0.6671;
	492	1.99999997	0.999999533	1	0	1.08275811	2	1	2	1.9	0	0	0	0	0	0	0	0	0	0	0	202.4784	0.0000	14.7256	0.0000;
	493	234	129.999999	130	0	1.11318473	281	1	234	222.3	0	0	0	0	0	0	0	0	0	0	0	207.6395	0.0000	13.1778	0.0000;
	494	234	129.999999	130	0	1.07842245	281	1	234	222.3	0	0	0	0	0	0	0	0	0	0	0	278.2709	0.0000	11.9259	0.0000;
	514	115	89.9999994	90	0	1.0775948	138	1	115	109.25	0	0	0	0	0	0	0	0	0	0	0	249.9256	0.0000	10.6967	0.0000;
	515	115	54.7057003	90	0	1.04450306	138	1	115	109.25	0	0	0	0	0	0	0	0	0	0	0	382.5117	0.0000	0.0000	0.0000;
	525	5.99999995	3.99999322	4	0	1.08533357	7	1	6	5.7	0	0	0	0	0	0	0	0	0	0	0	148.2689	0.0000	0.9667	0.0000;
	536	5.99999997	5.9999996	6	0	1.057119	7	1	6	5.7	0	0	0	0	0	0	0	0	0	0	0	224.0379	0.0000	17.0417	0.0000;
	537	3.49999997	2.99999953	3	0	1.06204103	4	1	3.5	3.33	0	0	0	0	0	0	0	0	0	0	0	220.9162	0.0000	14.5911	0.0000;
	556	2.69999996	0.999993042	1	0	1.05070525	3	1	2.7	2.57	0	0	0	0	0	0	0	0	0	0	0	154.0234	0.0000	0.9579	0.0000;
	580	1.59999995	6.28677767e-05	1	0	1.06612851	2	1	1.6	1.52	0	0	0	0	0	0	0	0	0	0	0	147.1789	0.0000	0.0000	0.1369;
	584	2.69999996	1.99998889	2	0	1.04899206	3	1	2.7	2.57	0	0	0	0	0	0	0	0	0	0	0	156.4821	0.0000	0.5978	0.0000;
	585	3.99999996	1.99998901	2	0	1.04932903	5	1	4	3.8	0	0	0	0	0	0	0	0	0	0	0	156.3598	0.0000	0.6046	0.0000;
	607	0.799999953	0	0	0	1.05296578	1	1	0.8	0.76	0	0	0	0	0	0	0	0	0	0	0	144.2676	0.0000	0.0000	0.2772;
	612	200	102.670584	120	0	1.12	256	1	200	70	0	0	0	0	0	0	0	0	0	0	0	58.0697	0.0000	0.0000	0.0000;
	613	200	119.999768	120	0	1.11996708	256	1	200	70	0	0	0	0	0	0	0	0	0	0	0	72.7752	0.0000	0.0295	0.0000;
	615	1.39999995	0.999996746	1	0	1.06317395	2	1	1.4	1.33	0	0	0	0	0	0	0	0	0	0	0	147.1549	0.0000	2.1041	0.0000;
	623	7.59999996	4.99999541	5	0	1.04971643	9	1	7.6	7.22	0	0	0	0	0	0	0	0	0	0	0	157.2854	0.0000	1.4585	0.0000;
	639	9.59999995	0.356058812	4	0	1.06437826	12	1	9.6	9.12	0	0	0	0	0	0	0	0	0	0	0	148.1371	0.0000	0.0000	0.0000;
	651	4.69999995	1.99998064	2	0	1.05857395	6	1	4.7	4.47	0	0	0	0	0	0	0	0	0	0	0	151.0485	0.0000	0.3104	0.0000;
	654	1.39999995	0.999954523	1	0	1.06977438	2	1	1.4	1.33	0	0	0	0	0	0	0	0	0	0	0	141.9729	0.0000	0.1497	0.0000;
	664	6.19999995	5.99999036	6	0	1.06445643	7	1	6.2	5.89	0	0	0	0	0	0	0	0	0	0	0	140.9932	0.0000	0.7107	0.0000;
	670	2.69999995	8.59439052e-05	2	0	1.05087854	3	1	2.7	2.57	0	0	0	0	0	0	0	0	0	0	0	144.7331	0.0000	0.0000	0.0893;
	674	0.999999957	0	0	0	1.05164999	1	1	1	0.95	0	0	0	0	0	0	0	0	0	0	0	157.7979	0.0000	1.2804	0.0000;
	688	70.000002	88.8696551	120	0	1.07842144	242	1	202	70	0	0	0	0	0	0	0	0	0	0	0	0.0000	3.4082	0.0000	0.0000;
	692	1.39999996	3.61018734e-05	1	0	1.08669168	2	1	1.4	1.33	0	0	0	0	0	0	0	0	0	0	0	181.1474	0.0000	0.0000	0.1938;
	699	3.79999995	1.99996796	2	0	1.05088415	5	1	3.8	3.61	0	0	0	0	0	0	0	0	0	0	0	145.1235	0.0000	0.2121	0.0000;
	712	1.19999996	0.999996039	1	0	1.05014583	1	1	1.2	1.14	0	0	0	0	0	0	0	0	0	0	0	157.7559	0.0000	1.6941	0.0000;
	730	6.89999995	9.77545782e-06	3	0	1.06845693	8	1	6.9	6.56	0	0	0	0	0	0	0	0	0	0	0	140.4947	0.0000	0.0000	0.7079;
	732	1.09999995	0.502943065	1	0	1.0549692	1	1	1.1	1.05	0	0	0	0	0	0	0	0	0	0	0	146.9001	0.0000	0.0000	0.0000;
	735	4.09999995	1.99998352	2	0	1.06135245	5	1	4.1	3.9	0	0	0	0	0	0	0	0	0	0	0	149.8253	0.0000	0.3717	0.0000;
	740	3.99999995	1.3658504e-05	1	0	1.07883084	5	1	4	3.8	0	0	0	0	0	0	0	0	0	0	0	137.5340	0.0000	0.0000	0.5065;
	744	134	19.9864981	60	0	1.09021641	161	1	134	127.3	0	0	0	0	0	0	0	0	0	0	0	134.7255	0.0000	0.0000	0.0000;
	754	79.9999998	29.9999349	30	0	1.08548312	54	1	80	10	0	0	0	0	0	0	0	0	0	0	0	41.8618	0.0000	0.0924	0.0000;
	755	85.0000014	38.0678928	80	0	1.06182884	110	1	250	85	0	0	0	0	0	0	0	0	0	0	0	0.0000	4.7407	0.0000	0.0000;
	760	3.09999996	1.99998775	2	0	1.05635391	4	1	3.1	2.95	0	0	0	0	0	0	0	0	0	0	0	153.9838	0.0000	0.5404	0.0000;
	766	2.09999996	0.999986987	1	0	1.05264371	3	1	2.1	2	0	0	0	0	0	0	0	0	0	0	0	155.6410	0.0000	0.5123	0.0000;
	784	0.699999956	0	0	0	1.05828245	1	1	0.7	0.67	0	0	0	0	0	0	0	0	0	0	0	156.9053	0.0000	1.5296	0.0000;
	790	49.8	35	35	35	1.0744048	60	1	49.8	47.31	0	0	0	0	0	0	0	0	0	0	0	138.7580	0.0000	0.0000	0.3078;
	795	1.88999995	1	1	1	1.0695991	2	1	1.89	1.8	0	0	0	0	0	0	0	0	0	0	0	129.5581	0.0000	0.0000	0.1794;
	798	2.98999995	3	3	3	1.0755649	4	1	2.99	2.84	0	0	0	0	0	0	0	0	0	0	0	130.4915	0.0000	0.0314	0.0000;
	814	44.9199999	16.1617833	42	0	1.06049254	54	1	44.92	42.67	0	0	0	0	0	0	0	0	0	0	0	130.8537	0.0000	0.0000	0.0000;
	834	54.9999997	82.9999797	83	0	1.09100623	110	1	55	23	0	0	0	0	0	0	0	0	0	0	0	21.3713	0.0000	0.3328	0.0000;
	878	2.98999995	0	0	0	1.10466137	4	1	2.99	2.84	0	0	0	0	0	0	0	0	0	0	0	129.1133	0.0000	0.3846	0.0000;
	884	2.48999995	0	0	0	1.05662139	3	1	2.49	2.37	0	0	0	0	0	0	0	0	0	0	0	136.8034	0.0000	0.7801	0.0000;
	892	31.8699999	34.5811866	42	6	1.06648262	38	1	31.87	30.28	0	0	0	0	0	0	0	0	0	0	0	134.3319	0.0000	0.0000	0.0000;
	895	8.95999995	7	7	7	1.07546999	11	1	8.96	8.51	0	0	0	0	0	0	0	0	0	0	0	130.2942	0.0000	0.0946	0.0000;
	901	3.67999995	2	2	2	1.0713431	4	1	3.68	3.5	0	0	0	0	0	0	0	0	0	0	0	129.9258	0.0000	0.2322	0.0000;
	910	4.57999995	3	3	3	1.06049141	6	1	4.58	4.35	0	0	0	0	0	0	0	0	0	0	0	130.9525	0.0000	0.0234	0.0000;
	911	370	87.0270279	224	0	1.10904627	415	1	370	280	0	0	0	0	0	0	0	0	0	0	0	45.0723	0.0000	0.0000	0.0000;
	912	369.999998	87.4117281	224	0	1.10634153	415	1	370	280	0	0	0	0	0	0	0	0	0	0	0	3.1593	0.0000	0.0000	0.0000;
	914	15.9299999	10	10	10	1.07401215	19	1	15.93	15.13	0	0	0	0	0	0	0	0	0	0	0	130.8343	0.0000	0.0273	0.0000;
	917	2.08999995	0	0	0	1.10192379	3	1	2.09	1.99	0	0	0	0	0	0	0	0	0	0	0	129.4649	0.0000	0.5671	0.0000;
	919	21.9099999	12	12	12	1.08193839	26	1	21.91	20.81	0	0	0	0	0	0	0	0	0	0	0	108.3645	0.0000	0.8037	0.0000;
	920	1.98999994	0	0	0	1.07694048	2	1	1.99	1.89	0	0	0	0	0	0	0	0	0	0	0	124.1453	0.0000	0.0000	0.3927;
	929	63.7299999	29.0000171	50	29	1.08286454	77	1	63.73	60.54	0	0	0	0	0	0	0	0	0	0	0	127.9154	0.0000	0.0000	0.4000;
	959	2.48999995	1	1	1	1.02954499	3	1	2.49	2.37	0	0	0	0	0	0	0	0	0	0	0	142.7638	0.0000	1.8964	0.0000;
	968	0.699999951	0	0	0	1.07257085	1	1	0.7	0.67	0	0	0	0	0	0	0	0	0	0	0	139.8495	0.0000	1.0132	0.0000;
	993	3.97999995	1	1	1	1.05497382	5	1	3.98	3.78	0	0	0	0	0	0	0	0	0	0	0	143.8028	0.0000	1.4621	0.0000;
	994	1.98999995	1	1	1	1.05497202	2	1	1.99	1.89	0	0	0	0	0	0	0	0	0	0	0	143.8029	0.0000	1.4621	0.0000;
	995	20.0000005	37.999966	38	0	1.08736039	60	1	100	20	0	0	0	0	0	0	0	0	0	0	0	0.0000	13.7228	0.2017	0.0000;
	996	20.0000009	0.000129162654	38	0	1.07835606	60	1	50	20	0	0	0	0	0	0	0	0	0	0	0	0.0000	7.4500	0.0000	0.0512;
	997	20.0000006	37.9999859	38	0	1.05215444	60	1	50	20	0	0	0	0	0	0	0	0	0	0	0	0.0000	11.1200	0.4838	0.0000;
	1004	4.27999995	3	3	3	1.08058407	5	1	4.28	4.07	0	0	0	0	0	0	0	0	0	0	0	135.1918	0.0000	0.0000	0.2994;
	1024	0.1	0	0	0	1.08822275	0	1	0.1	0.1	0	0	0	0	0	0	0	0	0	0	0	136.8498	0.0000	0.3899	0.0000;
	1027	24.8999999	13	13	13	1.10755416	30	1	24.9	23.66	0	0	0	0	0	0	0	0	0	0	0	129.5486	0.0000	0.0311	0.0000;
	1028	2.98999995	3	3	3	1.1076012	4	1	2.99	2.84	0	0	0	0	0	0	0	0	0	0	0	129.5131	0.0000	0.0434	0.0000;
	1029	24.8999999	14	14	14	1.10528918	30	1	24.9	23.66	0	0	0	0	0	0	0	0	0	0	0	129.8689	0.0000	0.2419	0.0000;
	1053	59.7599999	27.142795	53	0	1.06059181	72	1	59.76	56.77	0	0	0	0	0	0	0	0	0	0	0	130.9637	0.0000	0.0000	0.0000;
	1054	29.88	22.5209561	31	0	1.07426352	36	1	29.88	28.39	0	0	0	0	0	0	0	0	0	0	0	139.3759	0.0000	0.0000	0.0000;
	1105	7.96999995	10	10	10	1.0728336	10	1	7.97	7.57	0	0	0	0	0	0	0	0	0	0	0	133.6038	0.0000	0.0474	0.0000;
	1106	22.9099999	13	13	13	1.07739343	28	1	22.91	21.76	0	0	0	0	0	0	0	0	0	0	0	133.0559	0.0000	0.0000	0.1323;
	1107	10.5599999	3	3	3	1.07158351	13	1	10.56	10.03	0	0	0	0	0	0	0	0	0	0	0	128.9273	0.0000	0.0000	0.1798;
	1138	44.8199999	9.3560055	41	0	1.07820441	54	1	44.82	42.58	0	0	0	0	0	0	0	0	0	0	0	127.3305	0.0000	0.0000	0.0000;
	1140	230	58.0300154	199	-87	1.09383168	252	1	230	70	0	0	0	0	0	0	0	0	0	0	0	34.1610	0.0000	0.0000	0.0000;
	1141	70.0000034	75.1277969	190	-89	1.09561915	251	1	225	70	0	0	0	0	0	0	0	0	0	0	0	0.0000	2.0143	0.0000	0.0000;
	1175	37.8399999	20	20	20	1.08550947	45	1	37.84	35.95	0	0	0	0	0	0	0	0	0	0	0	136.8232	0.0000	0.4549	0.0000;
	1182	40.0000003	9.77600861	125	-50	1.07368783	133	1	120	40	0	0	0	0	0	0	0	0	0	0	0	0.0000	20.3289	0.0000	0.0000;
	1183	120	7.89878968	125	-50	1.05923769	133	1	120	40	0	0	0	0	0	0	0	0	0	0	0	63.6436	0.0000	0.0000	0.0000;
	1184	40.0000091	90.6313724	125	-50	1.08117313	133	1	120	40	0	0	0	0	0	0	0	0	0	0	0	0.0000	0.7432	0.0000	0.0000;
	1191	106.56	31.2680008	129	-47	1.09565811	128	1	106.56	101.23	0	0	0	0	0	0	0	0	0	0	0	131.5566	0.0000	0.0000	0.0000;
	1192	250	45.6564587	125	-50	1.08029462	123	1	250	80	0	0	0	0	0	0	0	0	0	0	0	67.9526	0.0000	0.0000	0.0000;
	1201	99.5899999	0.0223730393	90	0	1.11221271	120	1	99.59	94.61	0	0	0	0	0	0	0	0	0	0	0	128.7525	0.0000	0.0000	0.0000;
	1202	99.5899999	81.5540526	90	0	1.11225303	120	1	99.59	94.61	0	0	0	0	0	0	0	0	0	0	0	128.7525	0.0000	0.0000	0.0000;
	1203	99.5899999	55.6202787	90	0	1.10980633	120	1	99.59	94.61	0	0	0	0	0	0	0	0	0	0	0	129.1354	0.0000	0.0000	0.0000;
	1232	51.7899999	27.0525781	41	0	1.07073867	62	1	51.79	49.2	0	0	0	0	0	0	0	0	0	0	0	134.4035	0.0000	0.0000	0.0000;
	1233	14.9399999	21.7345607	41	0	1.06261852	18	1	14.94	14.19	0	0	0	0	0	0	0	0	0	0	0	135.1707	0.0000	0.0000	0.0000;
	1244	18.9199999	20	20	20	1.0679914	23	1	18.92	17.97	0	0	0	0	0	0	0	0	0	0	0	131.8535	0.0000	0.0923	0.0000;
	1247	15.9299999	12	12	12	1.07099195	19	1	15.93	15.13	0	0	0	0	0	0	0	0	0	0	0	131.0443	0.0000	0.1944	0.0000;
	1250	197.19	51.7297425	151	0	1.06131644	237	1	197.19	187.33	0	0	0	0	0	0	0	0	0	0	0	130.8403	0.0000	0.0000	0.0000;
	1268	0.49999995	0	0	0	1.04790468	1	1	0.5	0.48	0	0	0	0	0	0	0	0	0	0	0	136.8221	0.0000	0.7700	0.0000;
	1316	0.99999995	0	0	0	1.08618716	1	1	1	0.95	0	0	0	0	0	0	0	0	0	0	0	136.6430	0.0000	0.4626	0.0000;
	1325	1.38999995	0	0	0	1.10854198	2	1	1.39	1.32	0	0	0	0	0	0	0	0	0	0	0	129.1949	0.0000	0.0778	0.0000;
	1349	1.48999995	0	0	0	1.02873544	2	1	1.49	1.42	0	0	0	0	0	0	0	0	0	0	0	150.4280	0.0000	2.1615	0.0000;
	1356	0.999999948	2	2	2	1.06491448	1	1	1	0.95	0	0	0	0	0	0	0	0	0	0	0	132.0888	0.0000	0.3244	0.0000;
	1359	0.799999952	1	1	1	1.06024152	1	1	0.8	0.76	0	0	0	0	0	0	0	0	0	0	0	141.7966	0.0000	0.4304	0.0000;
	1393	12.75	8.78016385	11	0	1.05994131	15	1	12.75	12.11	0	0	0	0	0	0	0	0	0	0	0	145.0228	0.0000	0.0000	0.0000;
	1403	4.27999995	1	1	1	1.06061844	5	1	4.28	4.07	0	0	0	0	0	0	0	0	0	0	0	131.0892	0.0000	0.0000	0.0089;
	1416	367.424728	44.6660918	180	10	1.10198149	246	1	371	80	0	0	0	0	0	0	0	0	0	0	0	0.0000	0.0000	0.0000	0.0000;
	1417	119.999999	36.0923033	120	5	1.11999994	123	1	120	80	0	0	0	0	0	0	0	0	0	0	0	12.1856	0.0000	0.0000	0.0000;
	1418	19.9999991	5.00005712	90	5	1.06136053	123	1	20	5	0	0	0	0	0	0	0	0	0	0	0	8.0167	0.0000	0.0000	0.1216;
	1426	494.999999	63.5864877	68	27	1.12	106	1	495	20	0	0	0	0	0	0	0	0	0	0	0	7.2248	0.0000	0.0000	0.0000;
	1429	0.199999948	0	0	0	1.04603534	0	1	0.2	0.19	0	0	0	0	0	0	0	0	0	0	0	132.1900	0.0000	0.7667	0.0000;
	1469	0.599999952	0	0	0	1.05541246	1	1	0.6	0.57	0	0	0	0	0	0	0	0	0	0	0	144.1559	0.0000	0.0494	0.0000;
	1475	2.08999995	2	2	2	1.0609708	3	1	2.09	1.99	0	0	0	0	0	0	0	0	0	0	0	131.5806	0.0000	0.5468	0.0000;
	1504	31.1699999	2	2	2	1.05573378	37	1	31.17	29.61	0	0	0	0	0	0	0	0	0	0	0	132.7272	0.0000	0.0000	1.1049;
	1505	48.7999999	4	4	4	1.07699431	59	1	48.8	46.36	0	0	0	0	0	0	0	0	0	0	0	132.6833	0.0000	0.0000	0.9821;
	1514	2.2899999	1	1	1	1.09513709	3	1	2.29	2.18	0	0	0	0	0	0	0	0	0	0	0	70.8265	0.0000	0.5714	0.0000;
	1534	0.299999948	0	0	0	1.05593037	0	1	0.3	0.29	0	0	0	0	0	0	0	0	0	0	0	132.0947	0.0000	0.0000	0.5293;
	1536	160.000001	38.2648093	190	-89	1.07560838	251	1	225	160	0	0	0	0	0	0	0	0	0	0	0	0.0000	13.3628	0.0000	0.0000;
	1537	225	68.8055182	203	-95	1.0846412	255	1	225	160	0	0	0	0	0	0	0	0	0	0	0	63.9497	0.0000	0.0000	0.0000;
	1538	215	32.1953328	190	-89	1.07874331	255	1	215	70	0	0	0	0	0	0	0	0	0	0	0	41.7947	0.0000	0.0000	0.0000;
	1542	8.95999995	3	3	3	1.07691722	11	1	8.96	8.51	0	0	0	0	0	0	0	0	0	0	0	132.6947	0.0000	0.0000	0.9797;
	1543	1.19999995	0	0	0	1.09486122	1	1	1.2	1.14	0	0	0	0	0	0	0	0	0	0	0	130.9473	0.0000	0.7099	0.0000;
	1550	1.78999995	1	1	1	1.06020693	2	1	1.79	1.7	0	0	0	0	0	0	0	0	0	0	0	130.7880	0.0000	0.0000	0.0739;
	1566	54.7699999	25.21978	47	20	1.07558267	66	1	54.77	52.03	0	0	0	0	0	0	0	0	0	0	0	133.9254	0.0000	0.0000	0.0000;
	1587	63.7399999	27	27	27	1.06998259	77	1	63.74	60.55	0	0	0	0	0	0	0	0	0	0	0	131.6812	0.0000	0.0000	0.0286;
	1600	17.4299999	3	3	3	1.06209772	21	1	17.43	16.56	0	0	0	0	0	0	0	0	0	0	0	129.9555	0.0000	0.5397	0.0000;
	1602	120	23.3700331	90	0	1.11993336	144	1	120	40	0	0	0	0	0	0	0	0	0	0	0	19.3009	0.0000	0.0000	0.0000;
	1603	120	52.6816872	90	0	1.11999999	144	1	120	40	0	0	0	0	0	0	0	0	0	0	0	43.9233	0.0000	0.0000	0.0000;
	1609	0.29999996	0	0	0	1.06829616	0	1	0.3	0.29	0	0	0	0	0	0	0	0	0	0	0	170.8525	0.0000	5.6286	0.0000;
	1617	1.99999995	0	0	0	1.10926343	2	1	2	1.9	0	0	0	0	0	0	0	0	0	0	0	148.9881	0.0000	0.1295	0.0000;
	1620	1.59999995	0	0	0	1.10821808	2	1	1.6	1.52	0	0	0	0	0	0	0	0	0	0	0	149.2842	0.0000	0.0000	0.2792;
...
];

%% branch data
%	fbus	tbus	r	x	b	rateA	rateB	rateC	ratio	angle	status	angmin	angmax	Pf	Qf	Pt	Qt	mu_Sf	mu_St	mu_angmin	mu_angmax
mpc.branch = [
	16	1	0.00155	0.01169	0.0182	160	160	160	0	0	1	-360	360	89.1141	9.5435	-89.0059	-10.8232	0.0000	0.0000	0.0000	0.0000;
	355	1	0.00157	0.06612	0	160	160	160	1.0099	0	1	-360	360	-88.8961	-6.1965	89.0059	10.8232	0.0000	0.0000	0.0000	0.0000;
	17	2	0.00155	0.01169	0.0182	160	160	160	0	0	1	-360	360	152.6731	31.7853	-152.3482	-31.4404	0.0000	0.0000	0.0000	0.0000;
	354	2	0.00157	0.06612	0	160	160	160	1.022	0	1	-360	360	-152.0181	-17.5408	152.3482	31.4404	0.0000	0.0000	0.0000	0.0000;
	10	3	0.01068	0.07895	0.1226	274	274	274	0	0	1	-360	360	147.9544	22.3209	-145.9293	-21.6673	0.0000	0.0000	0.0000	0.0000;
	219	3	0.00165	0.06736	0	160	160	160	1.027	0	1	-360	360	-56.6151	-10.7040	56.6641	12.7063	0.0000	0.0000	0.0000	0.0000;
	220	3	0.00165	0.06736	0	160	160	160	0.9955	0	1	-360	360	-89.1482	-4.1824	89.2652	8.9611	0.0000	0.0000	0.0000	0.0000;
	7	4	0.01674	0.09711	0.14423	377	377	377	0	0	1	-360	360	-247.2918	46.0832	257.0502	-5.5749	0.0000	0.0000	0.0000	0.0000;
	11	4	0.00293	0.01599	0.02478	335	335	335	0	0	1	-360	360	175.7575	7.7629	-174.9656	-6.2660	0.0000	0.0000	0.0000	0.0000;
	14	4	0.00442	0.03223	0.04985	464	464	464	0	0	1	-360	360	163.4930	-48.0823	-162.3532	50.7863	0.0000	0.0000	0.0000	0.0000;
	16	4	0.00888	0.06665	0.08896	377	377	377	0	0	1	-360	360	194.5055	-4.6145	-191.5943	16.2897	0.0000	0.0000	0.0000	0.0000;
	22	4	0.00783	0.043	0.04962	350	350	350	0	0	1	-360	360	-103.7056	60.8872	104.6978	-61.1527	0.0000	0.0000	0.0000	0.0000;
	245	4	0.00165	0.06901	0	160	160	160	1.0594	0	1	-360	360	-108.6816	-7.4440	108.8572	14.7911	0.0000	0.0000	0.0000	0.0000;
	246	4	0.00165	0.06901	0	160	160	160	1.0448	0	1	-360	360	-58.2573	10.9910	58.3079	-8.8734	0.0000	0.0000	0.0000	0.0000;
	5	6	0.00064	0.0305	0	400	400	400	1.0435	-0.6	1	-360	360	-268.8211	14.6450	269.2745	6.9627	0.0000	0.0000	0.0000	0.0000;
	7	5	0.00525	0.03988	0.06195	381	381	381	0	0	1	-360	360	-82.0986	-10.0517	82.4227	5.6583	0.0000	0.0000	0.0000	0.0000;
	10	5	0.01459	0.11219	0.16553	381	381	381	0	0	1	-360	360	-3.5188	30.0293	3.7144	-47.6851	0.0000	0.0000	0.0000	0.0000;
	309	5	0.00165	0.0686	0	160	160	160	1.0646	0	1	-360	360	-90.9074	-17.6109	91.0381	23.0415	0.0000	0.0000	0.0000	0.0000;
	309	5	0.00165	0.0686	0	160	160	160	1.0523	0	1	-360	360	-91.5212	0.8434	91.6459	4.3403	0.0000	0.0000	0.0000	0.0000;
	6	8	0.00112	0.01329	0.34125	1316	1316	1316	0	0	1	-360	360	-385.3539	25.3591	386.9979	-40.7987	0.0000	0.0000	0.0000	0.0000;
	6	9	0.00299	0.03675	0.9184	1427	1427	1427	0	0	1	-360	360	140.3674	-97.4583	-139.7180	9.9291	0.0000	0.0000	0.0000	0.0000;
	15	6	0.00298	0.03417	0.93504	1427	1427	1427	0	0	1	-360	360	-92.5423	-72.3585	92.8170	-19.1285	0.0000	0.0000	0.0000	0.0000;
	31	6	0.0015	0.01506	0.4032	1385	1385	1385	0	0	1	-360	360	365.4373	-62.8514	-363.4459	41.6486	0.0000	0.0000	0.0000	0.0000;
	310	6	0.0015	0.06188	0	250	250	250	1.0613	0	1	-360	360	-245.4255	-4.8540	246.3409	42.6164	0.0000	1076.0728	0.0000	0.0000;
	12	7	0.01211	0.08742	0.14017	381	381	381	0	0	1	-360	360	-16.4583	6.6246	16.5102	-21.8027	0.0000	0.0000	0.0000	0.0000;
	13	7	0.00205	0.01326	0.02243	335	335	335	0	0	1	-360	360	-13.1991	40.6364	13.2348	-42.8831	0.0000	0.0000	0.0000	0.0000;
	19	7	0.0057	0.0407	0.06021	323	323	323	0	0	1	-360	360	-16.3291	19.2861	16.3689	-25.6689	0.0000	0.0000	0.0000	0.0000;
	21	7	0.00093	0.00651	0.01113	160	160	160	0	0	1	-360	360	-127.3124	7.3025	127.4503	-7.5600	0.0000	0.0000	0.0000	0.0000;
	29	7	0.01269	0.07498	0.1302	362	362	362	0	0	1	-360	360	152.3033	18.6825	-149.7020	-18.0539	0.0000	0.0000	0.0000	0.0000;
	321	7	0.00041	0.03368	0	250	250	250	1.0323	0	1	-360	360	-170.5553	3.4960	170.6641	5.4384	0.0000	0.0000	0.0000	0.0000;
	322	7	0.00165	0.06775	0	160	160	160	1.0569	0	1	-360	360	-134.5078	-59.8658	134.8641	74.4986	0.0000	0.0000	0.0000	0.0000;
	8	18	0.00336	0.03977	1.02163	1316	1316	1316	0	0	1	-360	360	-386.9979	40.7987	392.1965	-82.6887	0.0000	0.0000	0.0000	0.0000;
	332	9	0.00087	0.05244	-0.02144	330	330	330	1.0781	0	1	-360	360	-139.5561	21.9647	139.7180	-9.9291	0.0000	0.0000	0.0000	0.0000;
	171	10	0.01409	0.10413	0.15972	464	464	464	0	0	1	-360	360	-121.2781	-32.5989	123.2313	28.6430	0.0000	0.0000	0.0000	0.0000;
	346	10	0.00124	0.06839	0	160	160	160	1.0054	0	1	-360	360	-17.0694	29.8892	17.0812	-29.2363	0.0000	0.0000	0.0000	0.0000;
	347	10	0.00124	0.06839	0	160	160	160	1.024	0	1	-360	360	-102.9100	-8.7760	103.0219	14.9472	0.0000	0.0000	0.0000	0.0000;
	16	11	0.0057	0.03952	0.07553	464	464	464	0	0	1	-360	360	256.7839	-19.8425	-253.5152	33.8193	0.0000	0.0000	0.0000	0.0000;
	17	11	0.0057	0.03952	0.07553	464	464	464	0	0	1	-360	360	298.5511	-10.3310	-294.1818	31.9039	0.0000	0.0000	0.0000	0.0000;
	111	11	0.01068	0.06196	0.09496	394	394	394	0	0	1	-360	360	-135.6641	94.2844	138.1286	-91.2784	0.0000	0.0000	0.0000	0.0000;
	352	11	0.00165	0.06901	0	160	160	160	1.0412	0	1	-360	360	-134.7300	13.9945	134.9924	-3.0166	0.0000	0.0000	0.0000	0.0000;
	353	11	0.00165	0.06901	0	160	160	160	1.0559	0	1	-360	360	-98.6716	-14.6684	98.8184	20.8089	0.0000	0.0000	0.0000	0.0000;
	140	12	0.01465	0.10589	0.17085	464	464	464	0	0	1	-360	360	136.9980	32.4300	-134.5469	-34.8068	0.0000	0.0000	0.0000	0.0000;
	359	12	0.00155	0.06612	0	160	160	160	1.0395	0	1	-360	360	-97.7783	-6.7372	97.9132	12.4886	0.0000	0.0000	0.0000	0.0000;
	360	12	0.00157	0.06612	0	160	160	160	1.059	0	1	-360	360	-53.0490	-13.8843	53.0920	15.6937	0.0000	0.0000	0.0000	0.0000;
	29	13	0.01345	0.08114	0.14113	339	339	339	0	0	1	-360	360	143.5617	9.7660	-141.1455	-11.2426	0.0000	0.0000	0.0000	0.0000;
	365	13	0.00165	0.06901	0	160	160	160	1.0312	0	1	-360	360	-72.0521	6.8530	72.1297	-3.6093	0.0000	0.0000	0.0000	0.0000;
	366	13	0.00165	0.06901	0	160	160	160	0.9872	0	1	-360	360	-82.1046	30.4018	82.2150	-25.7846	0.0000	0.0000	0.0000	0.0000;
	17	14	0.00384	0.02853	0.04588	464	464	464	0	0	1	-360	360	320.0178	49.9690	-316.5455	-29.4004	0.0000	0.0000	0.0000	0.0000;
	367	14	0.00157	0.06798	0	160	160	160	1.0664	0	1	-360	360	-93.8565	-26.6607	93.9959	32.6931	0.0000	0.0000	0.0000	0.0000;
	368	14	0.00165	0.06901	0	160	160	160	1.0777	0	1	-360	360	-58.9754	-41.3928	59.0567	44.7896	0.0000	0.0000	0.0000	0.0000;
	18	15	0.00358	0.04262	1.0944	1662	1662	1662	0	0	1	-360	360	552.1863	-35.0140	-541.2634	55.5744	0.0000	0.0000	0.0000	0.0000;
	15	165	0.00207	0.02474	0.664	831	831	831	0	0	1	-360	360	451.5805	-31.7372	-447.3595	16.0081	0.0000	0.0000	0.0000	0.0000;
	374	15	0.0015	0.06188	0	250	250	250	1.1502	0	1	-360	360	-181.6918	-26.5181	182.2252	48.5213	0.0000	0.0000	0.0000	0.0000;
	16	18	0.00036	0.02519	0	500	500	500	1.0605	0	1	-360	360	50.5942	50.4650	-50.5763	-49.2114	0.0000	0.0000	0.0000	0.0000;
	16	73	0.00909	0.0624	0.11142	464	464	464	0	0	1	-360	360	74.1222	5.0506	-73.6791	-14.7223	0.0000	0.0000	0.0000	0.0000;
	17	18	0.00036	0.02519	0	500	500	500	1.0607	0	1	-360	360	105.6455	66.4626	-105.5913	-62.6671	0.0000	0.0000	0.0000	0.0000;
	17	74	0.00868	0.06405	0.09699	464	464	464	0	0	1	-360	360	126.1125	13.6734	-124.8979	-15.7951	0.0000	0.0000	0.0000	0.0000;
	20	18	0.00063	0.00749	0.39226	1427	1427	1427	0	0	1	-360	360	-302.2106	105.6263	302.8753	-137.2567	0.0000	0.0000	0.0000	0.0000;
	75	18	0.00219	0.02369	0.59584	1434	1434	1434	0	0	1	-360	360	-153.8393	-16.0902	154.3622	-37.8262	0.0000	0.0000	0.0000	0.0000;
	18	76	0.00137	0.01625	0.41184	1662	1662	1662	0	0	1	-360	360	225.7391	-30.1984	-225.0401	-2.6854	0.0000	0.0000	0.0000	0.0000;
	18	101	0.00231	0.02769	0.70144	1662	1662	1662	0	0	1	-360	360	283.5395	-55.1375	-281.6742	7.1602	0.0000	0.0000	0.0000	0.0000;
	124	19	0.01696	0.12366	0.19699	464	464	464	0	0	1	-360	360	113.6899	26.7196	-111.7026	-35.3516	0.0000	0.0000	0.0000	0.0000;
	425	19	0.00165	0.06818	0	160	160	160	1.0241	0	1	-360	360	-127.7854	-5.8892	128.0317	16.0655	0.0000	0.0000	0.0000	0.0000;
	67	20	0.00331	0.03425	0.85888	831	831	831	0	0	1	-360	360	-114.1994	38.8123	114.8276	-121.5536	0.0000	0.0000	0.0000	0.0000;
	447	20	0.00137	0.06119	-0.01504	250	250	250	1.0796	0	1	-360	360	-105.4475	11.8394	105.5983	-3.5743	0.0000	0.0000	0.0000	0.0000;
	448	20	0.00137	0.06119	-0.01504	250	250	250	1.0923	0	1	-360	360	-81.6896	-13.7481	81.7847	19.5016	0.0000	0.0000	0.0000	0.0000;
	502	21	0.00165	0.07107	0	160	160	160	0.9922	0	1	-360	360	-127.0680	17.8312	127.3124	-7.3025	0.0000	0.0000	0.0000	0.0000;
	112	22	0.00465	0.02618	0.02962	362	362	362	0	0	1	-360	360	-33.9174	124.6067	34.5643	-124.5218	0.0000	0.0000	0.0000	0.0000;
	526	22	0.00165	0.06901	0	160	160	160	1.0685	0	1	-360	360	-64.8108	-48.2361	64.9088	52.3375	0.0000	0.0000	0.0000	0.0000;
	527	22	0.00165	0.06901	0	160	160	160	1.0424	0	1	-360	360	-4.2305	-11.2113	4.2325	11.2971	0.0000	0.0000	0.0000	0.0000;
	37	23	0.01163	0.07031	0.1058	394	394	394	0	0	1	-360	360	-27.1879	5.1198	27.2770	-16.4287	0.0000	0.0000	0.0000	0.0000;
	46	23	0.00837	0.04868	0.07348	457	457	457	0	0	1	-360	360	29.8557	10.3566	-29.7744	-18.1490	0.0000	0.0000	0.0000	0.0000;
	53	23	0.01122	0.06558	0.09835	274	274	274	0	0	1	-360	360	95.4369	-20.1579	-94.4977	14.6850	0.0000	0.0000	0.0000	0.0000;
	540	23	0.0014	0.0668	0	160	160	160	1.0182	0	1	-360	360	-96.8720	-14.0214	96.9950	19.8927	0.0000	0.0000	0.0000	0.0000;
	54	24	0.00769	0.05727	0.08789	160	160	160	0	0	1	-360	360	53.9221	-7.4977	-53.7208	-0.7686	0.0000	0.0000	0.0000	0.0000;
	545	24	0.00151	0.06715	0	160	160	160	1.0161	0	1	-360	360	-53.6815	0.9794	53.7208	0.7686	0.0000	0.0000	0.0000	0.0000;
	41	25	0.00556	0.04145	0.0636	274	274	274	0	0	1	-360	360	97.9154	-10.0218	-97.4362	6.5026	0.0000	0.0000	0.0000	0.0000;
	53	25	0.00452	0.03368	0.05169	464	464	464	0	0	1	-360	360	-127.9824	18.0016	128.6647	-18.6727	0.0000	0.0000	0.0000	0.0000;
	54	25	0.00019	0.0014	0.00213	464	464	464	0	0	1	-360	360	93.0933	-5.3936	-93.0784	5.2658	0.0000	0.0000	0.0000	0.0000;
	564	25	0.00157	0.07808	0	160	160	160	1.0276	0	1	-360	360	-61.7952	-4.1875	61.8499	6.9043	0.0000	0.0000	0.0000	0.0000;
	38	26	0.00698	0.05196	0.07967	160	160	160	0	0	1	-360	360	70.6744	10.3996	-70.3505	-16.8501	0.0000	0.0000	0.0000	0.0000;
	568	26	0.00149	0.06616	0	160	160	160	1.013	0	1	-360	360	-70.2797	-13.7032	70.3505	16.8501	0.0000	0.0000	0.0000	0.0000;
	28	27	0	0.0001	0	876	876	876	0	0	1	-360	360	82.4550	-14.8328	-82.4550	14.8391	0.0000	0.0000	0.0000	0.0000;
	33	27	0.0024	0.01494	0.02253	160	160	160	0	0	1	-360	360	-102.7827	-19.7068	103.0221	18.7221	0.0000	0.0000	0.0000	0.0000;
	48	27	0.01213	0.06215	0.09371	362	362	362	0	0	1	-360	360	-135.7196	49.3410	138.0147	-48.0544	0.0000	0.0000	0.0000	0.0000;
	27	74	0.01116	0.07231	0.10367	304	304	304	0	0	1	-360	360	-158.5818	14.4931	161.1655	-9.2924	0.0000	0.0000	0.0000	0.0000;
	47	28	0.00248	0.01798	0.02759	464	464	464	0	0	1	-360	360	-81.4755	-8.1136	81.6265	6.1721	0.0000	0.0000	0.0000	0.0000;
	28	88	0.01488	0.08161	0.1148	362	362	362	0	0	1	-360	360	-164.0816	8.6607	167.7411	-1.4993	0.0000	0.0000	0.0000	0.0000;
	30	29	0	0.0001	0	876	876	876	0	0	1	-360	360	-25.1783	-97.6352	25.1783	97.6439	0.0000	0.0000	0.0000	0.0000;
	29	32	0.00034	0.02097	0	500	500	500	1.0619	0	1	-360	360	-369.5127	53.6896	369.9715	-25.3974	0.0000	0.0000	0.0000	0.0000;
	45	29	0.00545	0.04021	0.06699	464	464	464	0	0	1	-360	360	-58.6249	-33.6456	58.8328	27.4774	0.0000	0.0000	0.0000	0.0000;
	48	29	0.00574	0.04283	0.06573	464	464	464	0	0	1	-360	360	-10.2260	-41.7214	10.3046	34.7600	0.0000	0.0000	0.0000	0.0000;
	613	29	0.00157	0.06775	0	160	160	160	1.0016	0	1	-360	360	-23.2929	64.5783	23.3521	-62.0246	0.0000	0.0000	0.0000	0.0000;
	46	30	0.00545	0.04021	0.06699	464	464	464	0	0	1	-360	360	-58.4510	-33.3758	58.6572	27.1952	0.0000	0.0000	0.0000	0.0000;
	49	30	0.00707	0.04541	0.06931	362	362	362	0	0	1	-360	360	-10.4567	-39.1545	10.5411	31.7383	0.0000	0.0000	0.0000	0.0000;
	32	31	0	0.0001	0	1593	1593	1593	0	0	1	-360	360	-681.7456	-15.0454	681.7456	15.5016	0.0000	0.0000	0.0000	0.0000;
	39	31	0.00176	0.02144	0.57344	1385	1385	1385	0	0	1	-360	360	68.2554	-54.4266	-68.1630	-2.6502	0.0000	0.0000	0.0000	0.0000;
	36	32	0.00167	0.0189	0.54176	498	498	498	0	0	1	-360	360	-310.1058	-75.9019	311.7742	40.4428	0.0000	0.0000	0.0000	0.0000;
	615	33	0.00163	0.06946	0	160	160	160	1.0291	0	1	-360	360	-102.6194	-12.7477	102.7827	19.7068	0.0000	0.0000	0.0000	0.0000;
	35	34	0	0.0001	0	1593	1593	1593	0	0	1	-360	360	-150.5555	39.3597	150.5555	-39.3370	0.0000	0.0000	0.0000	0.0000;
	34	51	0.00113	0.01406	0.37488	1385	1385	1385	0	0	1	-360	360	-225.9952	107.0984	226.7066	-137.7309	0.0000	0.0000	0.0000	0.0000;
	183	34	0.00188	0.02287	0.6432	1385	1385	1385	0	0	1	-360	360	-75.3199	0.1183	75.4398	-67.7613	0.0000	0.0000	0.0000	0.0000;
	183	35	0.00188	0.02287	0.6432	1385	1385	1385	0	0	1	-360	360	-74.6801	-0.1183	74.7980	-67.5510	0.0000	0.0000	0.0000	0.0000;
	617	35	0.00135	0.06052	0	250	250	250	1.0654	0	1	-360	360	-75.6749	-24.4888	75.7575	28.1913	0.0000	0.0000	0.0000	0.0000;
	644	36	0.00135	0.06052	0	250	250	250	1.1003	0	1	-360	360	-155.8000	-24.7906	156.1564	40.7653	0.0000	0.0000	0.0000	0.0000;
	645	36	0.00153	0.06156	0	250	250	250	1.0971	0	1	-360	360	-153.5628	-19.5810	153.9494	35.1367	0.0000	0.0000	0.0000	0.0000;
	38	37	0	0.0001	0	876	876	876	0	0	1	-360	360	20.7047	7.6350	-20.7047	-7.6346	0.0000	0.0000	0.0000	0.0000;
	663	37	0.00157	0.06616	0	160	160	160	1.0009	0	1	-360	360	-47.8604	-1.1613	47.8926	2.5148	0.0000	0.0000	0.0000	0.0000;
	55	38	0.00316	0.02076	0.03146	394	394	394	0	0	1	-360	360	91.6212	16.0682	-91.3791	-18.0346	0.0000	0.0000	0.0000	0.0000;
	40	39	0	0.0001	0	1593	1593	1593	0	0	1	-360	360	148.3122	-12.1211	-148.3122	12.1430	0.0000	0.0000	0.0000	0.0000;
	682	39	0.00139	0.05984	0	250	250	250	1.0603	0	1	-360	360	-79.9441	-37.4299	80.0569	42.2836	0.0000	0.0000	0.0000	0.0000;
	44	40	0.00109	0.01277	0.34176	1385	1385	1385	0	0	1	-360	360	316.5287	16.6525	-315.4504	-38.7961	0.0000	0.0000	0.0000	0.0000;
	679	40	0.0014	0.06235	0	250	250	250	1.0996	0	1	-360	360	-166.7153	-32.0822	167.1382	50.9171	0.0000	0.0000	0.0000	0.0000;
	42	41	0	0.0001	0	876	876	876	0	0	1	-360	360	-241.4136	6.3146	241.4136	-6.2624	0.0000	0.0000	0.0000	0.0000;
	41	43	0.00081	0.03	0	400	400	400	1.0377	0	1	-360	360	-95.3504	25.4845	95.4265	-22.6676	0.0000	0.0000	0.0000	0.0000;
	80	41	0.00372	0.0438	0.10096	609	609	609	0	0	1	-360	360	56.1105	29.4184	-55.9687	-39.2003	0.0000	0.0000	0.0000	0.0000;
	47	42	0.00882	0.06564	0.10066	274	274	274	0	0	1	-360	360	-62.0317	-11.1587	62.3436	2.3347	0.0000	0.0000	0.0000	0.0000;
	54	42	0.00355	0.02643	0.04056	392	392	392	0	0	1	-360	360	-147.0153	12.8912	147.7118	-12.2291	0.0000	0.0000	0.0000	0.0000;
	689	42	0.00145	0.06839	0	160	160	160	1.0037	0	1	-360	360	-89.2555	31.7369	89.3682	-26.4202	0.0000	0.0000	0.0000	0.0000;
	44	43	0	0.0001	0	1593	1593	1593	0	0	1	-360	360	-213.0363	20.6603	213.0363	-20.6155	0.0000	0.0000	0.0000	0.0000;
	99	43	0.00169	0.01994	0.50624	831	831	831	0	0	1	-360	360	-77.4567	-33.8083	77.5573	-16.7168	0.0000	0.0000	0.0000	0.0000;
	50	44	0.00094	0.01097	0.29376	1662	1662	1662	0	0	1	-360	360	-281.7331	76.2839	282.5276	-97.3128	0.0000	0.0000	0.0000	0.0000;
	46	45	0	0.0001	0	876	876	876	0	0	1	-360	360	28.5953	23.0192	-28.5953	-23.0180	0.0000	0.0000	0.0000	0.0000;
	49	45	0.01048	0.06097	0.09205	394	394	394	0	0	1	-360	360	30.5110	-12.5602	-30.4198	2.6636	0.0000	0.0000	0.0000	0.0000;
	706	47	0.00157	0.06775	0	160	160	160	1.0249	0	1	-360	360	-71.6138	-10.1606	71.6899	13.4456	0.0000	0.0000	0.0000	0.0000;
	707	47	0.00165	0.06775	0	160	160	160	1.0201	0	1	-360	360	-71.7393	-2.6211	71.8173	5.8267	0.0000	0.0000	0.0000	0.0000;
	49	48	0	0.0001	0	876	876	876	0	0	1	-360	360	-82.6668	28.9880	82.6668	-28.9812	0.0000	0.0000	0.0000	0.0000;
	717	48	0.00163	0.06783	0	160	160	160	1.023	0	1	-360	360	-63.2146	-18.6872	63.2789	21.3616	0.0000	0.0000	0.0000	0.0000;
	716	49	0.00143	0.06831	0	160	160	160	1.0238	0	1	-360	360	-62.5563	-20.0478	62.6124	22.7267	0.0000	0.0000	0.0000	0.0000;
	51	50	0	0.0001	0	1593	1593	1593	0	0	1	-360	360	-339.0091	110.9126	339.0091	-110.7901	0.0000	0.0000	0.0000	0.0000;
	98	50	0.0015	0.01788	0.4512	831	831	831	0	0	1	-360	360	85.9864	-85.0441	-85.8207	40.6197	0.0000	0.0000	0.0000	0.0000;
	100	50	0.00469	0.05544	1.4048	831	831	831	0	0	1	-360	360	87.5975	-105.8020	-87.1814	-32.7846	0.0000	0.0000	0.0000	0.0000;
	726	50	0.00139	0.0608	0	250	250	250	1.0815	0	1	-360	360	-115.5374	-18.4124	115.7262	26.6710	0.0000	0.0000	0.0000	0.0000;
	727	51	0.0014	0.06235	0	250	250	250	1.0819	0	1	-360	360	-112.1228	-18.8150	112.3025	26.8183	0.0000	0.0000	0.0000	0.0000;
	53	52	0.00151	0.00878	0.01316	160	160	160	0	0	1	-360	360	32.5455	2.1564	-32.5310	-3.5371	0.0000	0.0000	0.0000	0.0000;
	754	52	0.00163	0.06754	0	160	160	160	1.0317	0	1	-360	360	-32.5153	-2.8869	32.5310	3.5371	0.0000	0.0000	0.0000	0.0000;
	181	55	0.01434	0.08353	0.12603	394	394	394	0	0	1	-360	360	175.0000	30.2276	-171.2677	-23.4167	0.0000	0.0000	0.0000	0.0000;
	778	55	0.00161	0.06762	0	160	160	160	0.9979	0	1	-360	360	-79.5559	-3.5442	79.6465	7.3485	0.0000	0.0000	0.0000	0.0000;
	74	56	0.00207	0.01281	0.02052	394	394	394	0	0	1	-360	360	107.0616	22.2468	-106.8402	-23.1689	0.0000	0.0000	0.0000	0.0000;
	796	56	0.00207	0.06777	-0.003	160	160	160	1.0389	0	1	-360	360	-106.6179	-15.5620	106.8402	23.1689	0.0000	0.0000	0.0000	0.0000;
	81	57	0.00083	0.00496	0.00726	137	137	137	0	0	1	-360	360	22.9846	10.1521	-22.9800	-10.9600	0.0000	0.0000	0.0000	0.0000;
	80	58	0.00083	0.00496	0.00726	137	137	137	0	0	1	-360	360	21.9837	4.9765	-21.9800	-5.7900	0.0000	0.0000	0.0000	0.0000;
	63	59	0.00207	0.01405	0.02265	362	362	362	0	0	1	-360	360	61.5293	31.9600	-61.4447	-34.0850	0.0000	0.0000	0.0000	0.0000;
	82	59	0.01116	0.07045	0.11606	362	362	362	0	0	1	-360	360	15.2489	-8.2565	-15.2269	-5.3756	0.0000	0.0000	0.0000	0.0000;
	821	59	0.00165	0.06798	-0.00319	160	160	160	1.0178	0	1	-360	360	-76.5683	-34.8369	76.6715	39.4607	0.0000	0.0000	0.0000	0.0000;
	60	85	0.01095	0.0593	0.08441	362	362	362	0	0	1	-360	360	-45.2743	7.8664	45.4836	-16.4872	0.0000	0.0000	0.0000	0.0000;
	104	60	0.00599	0.04091	0.07212	464	464	464	0	0	1	-360	360	87.8736	-15.9038	-87.4669	10.3322	0.0000	0.0000	0.0000	0.0000;
	834	60	0.00145	0.06921	-0.00532	160	160	160	0.9936	0	1	-360	360	-58.3374	37.5053	58.3950	-34.1293	0.0000	0.0000	0.0000	0.0000;
	836	60	0.00372	0.12583	-0.00242	100	100	100	1.0154	0	1	-360	360	-74.1606	-9.3770	74.3462	15.9308	0.0000	0.0000	0.0000	0.0000;
	62	61	0	0.0001	0	876	876	876	0	0	1	-360	360	34.1866	-30.8595	-34.1866	30.8612	0.0000	0.0000	0.0000	0.0000;
	64	61	0.00517	0.03843	0.05876	464	464	464	0	0	1	-360	360	-74.7330	-1.3624	74.9740	-3.9154	0.0000	0.0000	0.0000	0.0000;
	109	61	0.00083	0.0062	0.00958	464	464	464	0	0	1	-360	360	249.0000	27.6017	-248.5706	-25.5533	0.0000	0.0000	0.0000	0.0000;
	184	61	0.01219	0.07066	0.11742	274	274	274	0	0	1	-360	360	-203.4172	12.7719	207.7832	-1.3925	0.0000	0.0000	0.0000	0.0000;
	82	62	0.00165	0.01095	0.01955	464	464	464	0	0	1	-360	360	-213.7114	-53.5445	214.3843	55.6703	0.0000	0.0000	0.0000	0.0000;
	110	62	0.00083	0.0062	0.00949	464	464	464	0	0	1	-360	360	249.0000	26.8685	-248.5708	-24.8108	0.0000	0.0000	0.0000	0.0000;
	71	63	0.00475	0.03079	0.04879	362	362	362	0	0	1	-360	360	-187.1581	-44.0845	188.6734	48.1765	0.0000	0.0000	0.0000	0.0000;
	91	63	0.00455	0.02769	0.04608	394	394	394	0	0	1	-360	360	-119.3561	-29.8719	119.9384	27.9588	0.0000	0.0000	0.0000	0.0000;
	94	63	0.00186	0.0126	0.02236	464	464	464	0	0	1	-360	360	-180.2120	2.0734	180.7192	-1.3086	0.0000	0.0000	0.0000	0.0000;
	96	63	0.00826	0.04236	0.06118	362	362	362	0	0	1	-360	360	-61.4778	18.2094	61.7696	-24.0639	0.0000	0.0000	0.0000	0.0000;
	64	69	0.00434	0.02975	0.05266	464	464	464	0	0	1	-360	360	120.8661	22.6743	-120.3134	-25.1377	0.0000	0.0000	0.0000	0.0000;
	79	64	0.00351	0.02438	0.03998	362	362	362	0	0	1	-360	360	-156.0665	-35.4617	156.8294	36.0214	0.0000	0.0000	0.0000	0.0000;
	93	64	0.00186	0.0126	0.02236	464	464	464	0	0	1	-360	360	-156.5662	-9.0236	156.9498	8.9490	0.0000	0.0000	0.0000	0.0000;
	95	64	0.00826	0.04236	0.06118	362	362	362	0	0	1	-360	360	-54.4917	14.4652	54.7177	-20.6629	0.0000	0.0000	0.0000	0.0000;
	90	65	0.00785	0.04132	0.06389	394	394	394	0	0	1	-360	360	-38.5789	-8.4197	38.6814	1.5305	0.0000	0.0000	0.0000	0.0000;
	65	91	0.00227	0.01446	0.02585	394	394	394	0	0	1	-360	360	-52.0714	-3.5505	52.1241	0.8642	0.0000	0.0000	0.0000	0.0000;
	66	67	0.00031	0.02094	0	500	500	500	1.0616	0	1	-360	360	-163.9905	-39.1214	164.0749	44.8198	0.0000	0.0000	0.0000	0.0000;
	66	68	0.00248	0.02355	0.04763	457	457	457	0	0	1	-360	360	-97.6424	19.4774	97.8537	-23.0649	0.0000	0.0000	0.0000	0.0000;
	152	66	0.01033	0.08285	0.13959	464	464	464	0	0	1	-360	360	-255.5577	13.0630	261.6329	19.6441	0.0000	0.0000	0.0000	0.0000;
	138	67	0.00194	0.02056	0.51584	866	866	866	0	0	1	-360	360	-771.1742	-60.1389	782.8118	130.4336	0.0000	0.0000	0.0000	0.0000;
	911	67	0.00156	0.06269	-0.00992	250	250	250	1.0656	0	1	-360	360	93.0680	16.8648	-92.9394	-10.6331	0.0000	0.0000	0.0000	0.0000;
...